作者leocean9816 (阿光)看板Gossiping標題[新聞] 陸三大航空訂購292架空巴 波音：令人失望時間Sun Jul  3 00:27:48 2022
1.媒體來源:工商時報
2.記者署名:賴瑩綺
3.完整新聞標題:陸三大航空訂購292架空巴 波音：令人失望
4.完整新聞內文:

中國三大航空集團（南航、國航、東航）一口氣訂購292架空中巴士飛機後一事，引發高
度關注。美媒認為，這是空巴公司有史以來最大的訂單之一，有助於鞏固空巴在中國市場
地位，對空巴的「老對手」美國波音公司造成巨大衝擊。

波音公司發言人7月1日發聲明表示「令人失望」，抱怨中美兩國間的「地緣政治差異」損
害了該公司的業務前景，並敦促中美間進行對話。

路透報導，該發言人在聲明中表示，作為與中國航空業有50年關係的美國最大出口商，地
緣政治差異繼續限制美國飛機出口，這令人失望（disappointing）。

聲明還補充，該公司會繼續敦促中美兩國政府進行「富有成效的對話」，以幫助訂單和交
付能夠迅速恢復，因為波音對中國的飛機銷售歷來支持數以萬計的美國人就業。

分析人士指出，傳統上，中國航空公司會在國際航空業「雙寡頭」之間謹慎平衡交易，以
保持最大的影響力。而這筆訂單「是中國發出的信號，對波音公司造成了極大的傷害」。

美國航空航太分析公司AeroDynamic Advisory的分析師Richard Aboulafia認為，通過優
先考慮對中國航空公司的訂單交付，空巴可以進一步擠壓波音的市場地位。他指出，「就
像你在世界其他地方看到的那樣，中國人正在為捲土重來做準備，很明顯美國處於劣勢」
。

7月1日，中國東航、中國國航、南方航空三家航空公司發佈公告，宣佈分別向空巴公司購
買100架、96架、96架共計292架空巴A320NEO飛機，交付時間為2024年至2027年，總計金
額372.57億美元，折合人民幣逾2,400億元。據媒體疏理，此次交易均為三大航有史以來
訂單數量最大和訂單金額最高的單筆訂單。

中國民航大學航空經濟研究所所長李曉津表示，當前三大航集體購買可以獲得較大折扣。
另外，當前購買波音飛機可能面臨一些非經濟因素帶來的風險，所以適當多採購空巴飛機
，對中國民航發展是保障安全的必要措施。

5.完整新聞連結 (或短網址)需放媒體原始連結，不可用轉載媒體連結:
https://ctee.com.tw/livenews/lm/ctee/A06601002022070221221278


---split---
推: 54
噓: 5
分數: 49
作者: leocean9816 (阿光)
標題: [新聞] 陸三大航空訂購292架空巴 波音：令人失望
時間: Sun Jul  3 00:27:48 2022
